<?xml version="1.0" encoding="UTF-8"?>

<!-- generated on 02/17/18 02:11:27 by SUMO polyconvert Version 0.31.0
<?xml version="1.0" encoding="UTF-8"?>

<configuration xmlns:xsi="http://www.w3.org/2001/XMLSchema-instance" xsi:noNamespaceSchemaLocation="http://sumo.dlr.de/xsd/polyconvertConfiguration.xsd">

    <input>
        <net-file value="kolkata_traffics.net.xml"/>
        <osm-files value="kolkata_traffics.osm"/>
        <type-file value="typemap.xml"/>
    </input>

    <output>
        <output-file value="kolkata_traffics.poly.xml"/>
    </output>

    <processing>
        <poi-layer-offset value="5"/>
    </processing>

</configuration>
-->

<additional xmlns:xsi="http://www.w3.org/2001/XMLSchema-instance" xsi:noNamespaceSchemaLocation="http://sumo.dlr.de/xsd/additional_file.xsd">
    <location netOffset="-641595.13,-2491087.08" convBoundary="-13903.96,-7765.22,10041.85,12404.33" origBoundary="88.241889,22.450355,88.475230,22.648190" projParameter="+proj=utm +zone=45 +ellps=WGS84 +datum=WGS84 +units=m +no_defs"/>

    <poly id="115781929" type="water" color="181,209,209" fill="1" layer="-4.00" shape="4178.83,4667.13 4168.38,4664.84 4167.41,4650.01 4167.20,4555.67 4182.02,4564.04 4192.41,4574.00 4192.25,4591.01 4189.08,4634.32 4178.83,4667.13"/>
    <poly id="115781936" type="water" color="181,209,209" fill="0" layer="-4.00" shape="4748.06,2822.51 4744.96,2831.49 4739.11,2839.99 4714.55,2869.11 4682.17,2908.30 4628.58,2973.62 4527.65,3086.22 4488.61,3129.73 4408.19,3231.55 4399.06,3243.55 4303.16,3369.34 4282.92,3401.10 4246.27,3432.99 4203.00,3458.91 4161.45,3476.07 4124.72,3509.18 4049.08,3573.19 3986.21,3629.10 3950.02,3664.41 3904.97,3701.83 3872.73,3727.31 3804.29,3788.65 3776.96,3819.66 3724.34,3841.65 3691.58,3863.83 3662.06,3895.09 3643.62,3920.42 3632.08,3943.90 3622.19,3969.89"/>
    <poly id="115781939" type="water" color="181,209,209" fill="1" layer="-4.00" shape="4217.90,4677.92 4197.53,4673.34 4198.76,4660.19 4209.36,4589.53 4221.49,4590.19 4240.16,4599.69 4271.91,4625.23 4285.60,4635.78 4259.80,4681.61 4245.42,4684.77 4217.90,4677.92"/>
    <poly id="115781943" type="water" color="181,209,209" fill="1" layer="-4.00" shape="4077.26,4790.13 4064.07,4785.07 4061.94,4776.82 4068.67,4764.26 4086.95,4757.31 4098.71,4738.23 4119.41,4708.25 4127.91,4684.75 4129.78,4662.82 4132.16,4643.64 4126.27,4624.94 4128.18,4598.63 4127.47,4557.48 4137.43,4553.74 4148.39,4560.97 4148.77,4579.62 4149.55,4671.79 4140.26,4721.62 4116.80,4750.46 4109.55,4759.17 4107.28,4766.83 4095.01,4779.87 4083.33,4790.19 4077.26,4790.13"/>
    <poly id="115781946" type="water" color="181,209,209" fill="0" layer="-4.00" shape="3495.93,4192.21 3507.14,4173.66 3521.70,4150.77 3548.97,4126.34 3570.81,4091.44 3585.93,4067.99 3622.86,4013.48 3636.76,4001.55 3654.63,3978.68 3671.84,3966.78 3699.10,3943.99 3719.88,3919.60 3737.07,3898.86 3755.63,3873.83 3778.97,3845.29 3795.09,3828.06 3816.77,3810.72 3836.20,3797.18 3862.45,3764.52 3884.16,3744.43 3905.84,3727.07 3943.64,3696.72 3982.60,3660.88 4011.52,3636.47 4042.69,3607.15 4082.17,3574.60 4105.56,3551.78 4136.15,3526.84 4159.52,3506.22 4179.48,3494.88 4190.00,3490.60 4204.83,3497.32 4218.39,3521.58 4227.65,3534.29 4244.61,3549.81 4256.12,3558.70 4264.89,3564.27 4269.76,3574.19 4270.16,3590.65 4264.97,3613.64 4258.69,3636.07 4251.74,3671.12 4242.44,3720.94 4241.75,3734.66 4244.92,3749.49 4254.14,3766.59 4263.89,3785.88 4265.33,3808.38 4260.15,3831.37 4255.49,3857.66 4256.93,3879.07 4260.04,3899.94 4269.90,3908.27 4264.79,3923.58 4254.57,3954.20 4247.17,3977.17 4229.93,3992.36 4194.98,4012.87 4167.21,4031.26 4148.31,4046.44 4140.97,4064.48 4144.68,4081.51 4143.42,4096.87 4144.93,4112.24 4147.51,4130.37 4141.88,4142.92 4136.17,4163.72 4141.34,4199.97 4147.14,4228.54 4146.37,4251.03 4148.38,4272.44 4152.58,4293.87 4150.09,4325.12 4147.95,4376.11 4143.09,4423.24 4137.16,4465.97 4135.33,4484.06 4134.63,4500.51 4145.50,4516.51 4153.71,4524.27 4153.80,4532.74 4154.01,4551.15 4156.70,4616.45 4158.35,4674.06 4157.60,4696.00 4149.64,4720.06 4132.83,4747.32 4118.35,4762.00 4126.46,4779.63 4149.72,4828.67 4153.94,4848.45 4168.15,4862.85 4186.61,4894.29 4193.63,4910.26 4194.23,4913.98"/>
    <poly id="153755336" type="water" color="181,209,209" fill="1" layer="-4.00" shape="3565.99,4221.22 3623.32,4229.46 3654.95,4235.96 3667.12,4242.03 3676.54,4249.06 3682.69,4258.06 3687.59,4267.78 3717.19,4330.85 3780.09,4461.96 3853.49,4617.25 3904.90,4721.70 3964.60,4848.07 4037.28,4999.37 4107.99,5147.43 4172.60,5282.53 4225.44,5393.20 4290.51,5531.28 4363.43,5683.33 4399.39,5759.59 4447.83,5861.54 4506.56,5983.42 4539.06,6055.44 4591.89,6167.84 4642.79,6272.54 4659.67,6308.92 4670.19,6329.85 4681.51,6347.34 4693.43,6362.17 4694.58,6363.58 4706.68,6377.35 4720.05,6387.64 4733.43,6397.95 4752.04,6409.29 4803.86,6442.78 4927.14,6520.87 4999.05,6567.71 5054.38,6601.49 5063.13,6599.33 5071.37,6599.66 5076.07,6603.18 5080.00,6609.17 5079.93,6616.86 5079.89,6621.57 5100.22,6634.92 5159.00,6672.94 5240.35,6725.08 5353.17,6799.11 5471.22,6874.91 5564.21,6934.86 5665.65,7000.58 5796.76,7078.11 5917.14,7158.81 5997.75,7209.70 6001.71,7212.96 6001.39,7219.66 5998.33,7227.67 6033.22,7211.93 6022.41,7212.92 6017.93,7211.63 5998.08,7200.77 5842.58,7094.93 5608.01,6947.43 5351.59,6781.97 5171.33,6662.64 4956.33,6521.64 4814.47,6430.98 4732.64,6376.60 4719.27,6365.06 4717.62,6363.36 4707.38,6353.35 4696.32,6338.30 4687.49,6322.82 4604.76,6153.82 4487.37,5902.35 4416.65,5754.30 4346.91,5609.48 4286.72,5484.35 4223.41,5345.79 4146.26,5192.21 4076.52,5045.65 4004.33,4895.59 3941.92,4765.97 3931.62,4747.26 3883.90,4647.31 3818.56,4509.97 3772.58,4411.51 3752.78,4368.40 3726.12,4309.84 3710.48,4274.70 3698.73,4251.76 3683.14,4236.73 3668.99,4228.90 3647.84,4222.24 3603.27,4211.65 3580.60,4206.72 3550.93,4203.71 3546.20,4203.16 3535.84,4216.22 3565.99,4221.22"/>
    <poly id="153756759" type="landuse" color="194,194,130" fill="1" layer="-3.00" shape="3594.93,4191.79 3622.97,4195.41 3636.05,4197.64 3648.38,4200.37 3660.57,4203.83 3674.38,4208.43 3686.19,4213.62 3697.84,4220.93 3710.97,4231.35 3716.66,4236.37 3718.55,4234.65 3710.65,4226.27 3699.12,4217.96 3686.96,4210.41 3674.54,4205.20 3660.85,4200.61 3648.65,4197.51 3635.57,4194.79 3622.62,4192.55 3594.83,4189.06 3594.93,4191.79"/>
    <poly id="153793654" type="landuse" color="194,194,130" fill="1" layer="-3.00" shape="3213.31,4638.24 3232.34,4650.69 3236.17,4653.37 3246.89,4660.83 3258.90,4670.33 3260.12,4670.88 3261.01,4670.44 3261.28,4669.48 3260.46,4668.39 3248.39,4658.84 3233.75,4648.64 3214.69,4636.16 3213.60,4636.22 3213.07,4637.00 3213.31,4638.24"/>
    <poly id="153793808" type="water" color="181,209,209" fill="1" layer="-4.00" shape="3481.98,4235.96 3518.69,4199.27 3546.20,4203.16 3535.84,4216.22 3481.98,4235.96"/>
    <poly id="153898283" type="water" color="181,209,209" fill="1" layer="-4.00" shape="1205.71,4184.83 1294.65,4147.93 1350.62,4126.35 1402.13,4108.41 1499.72,4071.24 1555.32,4050.70 1605.79,4032.04 1642.66,4013.79 1674.97,3993.58 1714.33,3973.93 1754.98,3948.86 1786.05,3928.62 1857.60,3882.44 1915.06,3852.45 1986.49,3819.08 2101.50,3767.34 2141.56,3748.94 2166.69,3741.63 2189.32,3736.75 2214.93,3734.01 2239.83,3733.71 2280.41,3733.75 2343.44,3731.35 2372.74,3730.05 2385.28,3729.11 2403.50,3724.20 2429.16,3717.24 2458.90,3707.34 2512.08,3682.22 2591.85,3643.67 2672.49,3607.76 2743.39,3575.43 2816.39,3543.66 2850.25,3527.83 2953.06,3480.01 2999.50,3458.00 3054.79,3433.77 3180.58,3381.09 3253.23,3350.71 3369.71,3312.68 3412.55,3299.40 3491.86,3273.13 3551.29,3258.95 3660.65,3228.04 3736.55,3207.18 3819.08,3177.43 3923.21,3139.29 4027.35,3101.14 4135.20,3062.50 4241.43,3025.96 4297.40,3005.79 4352.69,2982.80 4391.60,2965.81 4420.04,2941.28 4423.93,2910.88 4430.23,2893.73 4462.45,2863.15 4491.41,2837.69 4526.58,2821.33 4573.19,2813.44 4603.94,2815.55 4610.39,2818.27 4677.81,2811.96 4722.11,2816.44 4741.64,2820.36 4748.06,2822.51 4768.59,2829.41 4771.89,2826.40 4782.35,2816.87 4815.21,2798.02 4832.51,2776.79 4865.85,2727.37 4845.77,2716.40 4827.30,2703.21 4795.59,2752.31 4771.94,2776.27 4747.88,2779.90 4675.93,2771.48 4637.44,2771.05 4603.04,2774.24 4588.56,2768.17 4536.55,2780.79 4507.37,2789.85 4481.95,2805.51 4449.76,2826.41 4417.83,2863.29 4400.17,2891.31 4390.56,2920.20 4375.23,2933.42 4337.63,2951.13 4286.22,2973.57 4230.80,2993.75 4113.57,3034.75 3972.63,3083.07 3853.44,3126.87 3742.07,3165.12 3599.06,3208.51 3434.15,3254.16 3287.41,3300.85 3120.90,3366.32 2970.27,3432.63 2864.51,3475.33 2766.63,3524.06 2669.50,3569.30 2546.12,3627.28 2441.21,3674.19 2403.31,3689.09 2382.79,3693.12 2361.96,3693.98 2339.19,3694.46 2255.52,3696.67 2184.55,3699.68 2155.06,3702.39 2138.07,3706.62 2122.29,3714.90 2098.16,3729.23 2065.87,3747.18 2021.34,3771.85 1997.25,3789.13 1992.50,3779.83 1913.07,3818.56 1844.80,3854.25 1814.11,3872.21 1773.82,3895.35 1741.60,3920.70 1719.15,3929.94 1671.58,3959.84 1614.27,3992.47 1560.69,4023.73 1527.52,4040.79 1498.49,4050.35 1422.14,4082.63 1331.15,4113.00 1228.44,4151.53 1197.45,4162.83 1205.71,4184.83"/>
    <poly id="157920894" type="building" color="255,230,230" fill="1" layer="-1.00" shape="3247.98,4620.85 3266.95,4618.33 3267.94,4623.30 3273.35,4622.95 3274.13,4628.95 3278.92,4628.38 3281.06,4645.37 3285.60,4648.93 3288.74,4646.07 3301.87,4644.74 3304.59,4643.11 3306.08,4640.23 3305.48,4636.70 3303.85,4633.79 3300.33,4630.86 3299.56,4624.02 3293.11,4624.79 3292.12,4619.19 3286.28,4620.17 3285.30,4614.37 3279.25,4615.35 3278.69,4608.92 3272.64,4610.11 3271.87,4604.10 3266.24,4604.87 3265.46,4598.87 3257.93,4599.35 3258.47,4605.07 3246.54,4606.70 3247.98,4620.85"/>
    <poly id="157920896" type="building" color="255,230,230" fill="1" layer="-1.00" shape="3358.18,4469.60 3374.43,4467.48 3373.64,4462.92 3385.94,4460.96 3387.12,4468.64 3400.87,4466.29 3402.35,4463.81 3398.01,4460.67 3404.13,4452.65 3416.53,4461.25 3411.69,4467.63 3429.46,4480.63 3433.89,4474.46 3446.08,4483.47 3440.60,4491.29 3436.26,4487.94 3434.17,4489.78 3436.31,4504.70 3439.23,4504.31 3443.57,4507.45 3440.40,4512.18 3436.65,4513.18 3437.63,4519.39 3456.80,4516.90 3458.73,4532.23 3452.47,4533.59 3451.44,4533.81 3452.45,4536.30 3449.51,4539.38 3447.65,4538.32 3449.65,4546.84 3432.98,4549.36 3429.62,4530.08 3423.16,4531.26 3423.74,4535.00 3420.16,4539.30 3416.04,4536.38 3415.02,4532.63 3399.81,4534.77 3398.33,4537.66 3403.49,4541.64 3398.22,4548.41 3386.03,4539.81 3390.45,4533.85 3373.29,4521.48 3368.46,4527.23 3356.47,4518.01 3361.33,4510.81 3366.08,4514.17 3367.97,4511.92 3366.04,4496.78 3358.75,4497.76 3356.97,4486.36 3360.74,4485.56 3358.18,4469.60"/>
    <poly id="157920902" type="building" color="255,230,230" fill="1" layer="-1.00" shape="3375.89,4510.75 3383.13,4516.40 3386.88,4515.60 3391.85,4518.96 3392.02,4522.70 3398.42,4527.31 3411.77,4525.36 3427.79,4503.58 3425.42,4490.31 3418.39,4485.70 3415.45,4486.91 3410.70,4483.55 3410.53,4480.24 3403.51,4474.79 3392.25,4476.76 3374.12,4500.59 3375.89,4510.75"/>
    <poly id="192717905" type="tourism" color="207,245,201" fill="1" layer="-2.00" shape="3126.47,5265.99 3124.74,5265.17 3087.47,5244.28 2993.19,5209.11 2962.63,5202.78 2997.81,5123.56 3036.47,5032.32 3063.28,4967.30 3087.81,4910.76 3132.42,4806.44 3163.42,4732.38 3196.61,4664.41 3207.80,4648.33 3241.86,4667.05 3264.59,4685.09 3288.61,4707.23 3311.02,4728.29 3342.69,4768.39 3367.96,4808.39 3373.58,4823.50 3384.82,4863.96 3400.22,4926.91 3424.65,5026.41 3450.64,5137.73 3474.47,5238.03 3493.38,5313.94 3516.43,5409.55 3533.42,5479.37 3563.17,5599.78 3557.05,5605.74 3552.52,5618.32 3432.31,5647.11 3320.62,5674.31 3188.42,5707.57 3168.66,5639.10 3153.44,5589.36 3154.61,5582.78 3143.96,5571.72 3130.28,5554.82 3112.13,5520.64 3102.18,5492.58 3097.99,5473.93 3094.09,5448.65 3092.33,5425.84 3090.99,5392.39 3090.95,5366.87 3092.82,5344.68 3098.26,5323.62 3105.35,5303.93 3114.64,5288.41 3128.91,5266.88 3126.47,5265.99"/>
    <poly id="192928289" type="residential" color="235,235,227" fill="1" layer="-3.00" shape="3435.12,4763.48 3494.51,4676.28 3514.05,4701.42 3530.37,4727.09 3546.07,4757.12 3555.95,4790.68 3564.76,4822.02 3573.44,4868.74 3470.62,4890.53 3469.07,4885.14 3460.62,4855.76 3453.78,4831.94 3450.93,4821.76 3441.53,4788.23 3432.34,4767.85 3435.12,4763.48"/>
    <poly id="192928291" type="commercial" color="209,209,204" fill="1" layer="-3.00" shape="3244.66,4631.68 3239.45,4628.06 3239.80,4620.39 3273.18,4561.19 3293.62,4528.74 3315.13,4502.08 3361.33,4546.40 3430.51,4611.23 3488.44,4667.98 3494.51,4676.28 3432.34,4767.85 3427.46,4758.48 3403.49,4724.23 3367.38,4750.77 3342.02,4720.36 3320.18,4696.84 3296.67,4673.58 3278.35,4658.61 3258.62,4643.61 3244.66,4631.68"/>
    <poly id="192928295" type="residential" color="235,235,227" fill="1" layer="-3.00" shape="3535.10,4720.54 3641.75,4674.94 3685.98,4752.42 3732.17,4737.77 3743.68,4782.03 3765.98,4867.83 3737.46,4878.51 3641.80,4900.92 3588.99,4914.68 3560.74,4780.30 3553.49,4761.32 3541.61,4733.78 3535.10,4720.54"/>
    <poly id="192928843" type="building" color="255,230,230" fill="1" layer="-1.00" shape="3500.63,4605.32 3535.79,4678.05 3556.86,4667.82 3562.54,4678.85 3531.24,4692.81 3490.08,4611.24 3500.63,4605.32"/>
    <poly id="192928845" type="building" color="255,230,230" fill="1" layer="-1.00" shape="3418.76,4635.79 3429.91,4623.56 3438.11,4631.31 3442.80,4631.36 3449.36,4637.73 3449.58,4643.49 3439.27,4654.64 3418.76,4635.79"/>
    <poly id="192928855" type="industrial" color="209,209,204" fill="1" layer="-3.00" shape="3638.22,4668.05 3614.99,4616.82 3630.92,4608.81 3566.71,4472.09 3527.35,4531.13 3461.50,4629.90 3498.12,4665.91 3517.73,4692.14 3531.33,4712.57 3535.10,4720.54 3641.75,4674.94 3638.22,4668.05"/>
    <poly id="192928858" type="building" color="255,230,230" fill="1" layer="-1.00" shape="3410.71,4721.02 3369.33,4663.58 3371.30,4659.49 3366.90,4656.70 3364.19,4652.02 3362.86,4647.07 3356.78,4648.38 3356.30,4640.97 3360.79,4633.62 3363.30,4629.80 3370.41,4635.90 3374.85,4632.65 3371.37,4622.74 3379.38,4622.00 3389.57,4623.46 3395.88,4627.08 3401.89,4632.35 3401.83,4638.66 3421.72,4665.18 3418.39,4667.61 3423.00,4675.34 3430.57,4662.24 3444.84,4670.06 3410.71,4721.02"/>
    <poly id="192928862" type="building" color="255,230,230" fill="1" layer="-1.00" shape="3546.48,4657.03 3520.24,4602.48 3541.04,4590.88 3568.10,4645.72 3546.48,4657.03"/>
    <poly id="192928863" type="building" color="255,230,230" fill="1" layer="-1.00" shape="3557.92,4585.29 3568.73,4579.63 3606.63,4655.13 3573.64,4672.10 3568.03,4660.03 3590.14,4649.49 3557.92,4585.29"/>
    <poly id="192928865" type="building" color="255,230,230" fill="1" layer="-1.00" shape="3429.62,4752.52 3415.94,4727.37 3423.78,4715.10 3429.26,4717.89 3431.04,4704.75 3433.31,4699.01 3435.56,4694.09 3444.80,4679.92 3453.96,4673.97 3452.92,4666.83 3459.86,4662.79 3463.49,4657.61 3480.17,4673.40 3429.62,4752.52"/>
    <poly id="192929961" type="amenity" color="237,199,199" fill="1" layer="-1.00" shape="3732.74,4416.62 3686.72,4324.02 3671.64,4343.64 3587.36,4447.61 3566.71,4472.09 3630.92,4608.81 3614.99,4616.82 3638.22,4668.05 3641.75,4674.94 3685.98,4752.42 3732.17,4737.77 3864.73,4690.20 3732.74,4416.62"/>
    <poly id="192929962" type="residential" color="235,235,227" fill="1" layer="-3.00" shape="3671.64,4343.64 3587.36,4447.61 3442.68,4344.48 3518.12,4241.80 3528.10,4236.95 3573.31,4240.67 3634.43,4252.50 3655.82,4265.87 3686.72,4324.02 3671.64,4343.64"/>
    <poly id="192929963" type="amenity" color="237,199,199" fill="1" layer="-1.00" shape="3587.36,4447.61 3566.71,4472.09 3527.35,4531.13 3376.81,4425.32 3420.94,4368.14 3442.68,4344.48 3587.36,4447.61"/>
    <poly id="192929964" type="amenity" color="237,199,199" fill="1" layer="-1.00" shape="3376.81,4425.32 3527.35,4531.13 3461.50,4629.90 3321.49,4500.49 3376.81,4425.32"/>
    <poly id="192929965" type="leisure" color="207,245,201" fill="1" layer="-2.00" shape="3852.61,4691.20 3689.33,4748.35 3630.89,4626.57 3788.80,4555.10 3852.61,4691.20"/>
    <poly id="193112260" type="amenity" color="237,199,199" fill="1" layer="-1.00" shape="3870.74,4456.06 3881.07,4481.34 3866.67,4486.68 3881.80,4521.66 3951.03,4492.70 3945.06,4482.49 3933.03,4470.86 3919.59,4462.50 3909.43,4458.30 3893.46,4454.85 3882.17,4453.37 3870.74,4456.06"/>
    <poly id="193112261" type="tourism" color="207,245,201" fill="1" layer="-2.00" shape="3977.52,4462.77 3984.58,4475.46 3989.16,4485.11 3992.92,4496.94 4054.03,4481.06 4050.27,4470.05 4041.64,4449.95 4035.66,4440.56 4028.34,4427.06 3977.52,4462.77"/>
    <poly id="193112262" type="residential" color="235,235,227" fill="1" layer="-3.00" shape="3747.56,4247.25 3769.57,4284.18 3796.33,4342.30 3811.69,4377.30 3850.40,4458.00 3881.55,4448.21 3915.42,4455.84 3938.79,4471.01 3948.63,4482.17 3957.29,4494.79 3963.29,4522.97 3962.11,4541.43 3954.01,4560.81 3940.26,4576.74 3916.92,4596.35 3963.73,4691.95 3977.02,4718.94 3980.91,4718.10 4013.55,4788.41 4041.79,4779.90 4050.17,4770.92 4079.65,4747.06 4112.46,4686.50 4119.80,4668.20 4121.12,4646.54 4116.70,4620.15 4116.93,4535.72 4118.88,4446.04 4119.01,4403.54 4133.39,4402.54 4132.27,4343.32 4142.76,4342.60 4146.33,4286.96 4132.33,4281.30 4099.75,4276.80 4070.60,4273.35 4040.26,4272.51 4006.38,4266.71 3970.86,4263.32 3933.89,4261.08 3902.19,4258.59 3875.20,4254.77 3845.11,4251.81 3816.76,4250.46 3785.61,4247.88 3747.56,4247.25"/>
    <poly id="193112264" type="industrial" color="209,209,204" fill="1" layer="-3.00" shape="3882.34,4522.22 3952.40,4493.53 3960.94,4523.23 3960.23,4540.78 3952.33,4559.63 3941.43,4574.06 3926.98,4585.17 3915.33,4591.64 3882.34,4522.22"/>
    <poly id="193112265" type="building" color="255,230,230" fill="1" layer="-1.00" shape="3879.79,4500.80 3881.33,4512.61 3898.11,4517.43 3900.58,4510.57 3901.93,4514.20 3950.54,4492.25 3940.66,4476.86 3912.68,4489.94 3916.60,4497.94 3902.64,4504.85 3891.38,4499.80 3879.79,4500.80"/>
    <poly id="193112266" type="building" color="255,230,230" fill="1" layer="-1.00" shape="3871.10,4486.72 3876.63,4484.86 3882.58,4496.43 3876.49,4499.12 3871.10,4486.72"/>
    <poly id="193112928" type="water" color="181,209,209" fill="1" layer="-4.00" shape="4249.70,4526.28 4235.65,4524.22 4224.40,4517.81 4220.06,4510.09 4220.45,4498.84 4222.72,4494.46 4232.10,4494.54 4254.37,4501.89 4258.41,4512.62 4255.83,4522.46 4252.75,4524.94 4249.70,4526.28"/>
    <poly id="193112933" type="water" color="181,209,209" fill="1" layer="-4.00" shape="4194.27,4292.89 4216.91,4293.09 4221.83,4298.07 4221.70,4337.31 4216.36,4406.10 4211.77,4452.68 4206.49,4457.85 4194.63,4456.64 4182.85,4452.39 4180.93,4447.19 4181.55,4440.60 4184.19,4423.62 4189.26,4383.35 4188.27,4342.21 4189.17,4336.18 4189.46,4304.64 4189.25,4298.06 4194.27,4292.89"/>
    <poly id="193112934" type="water" color="181,209,209" fill="1" layer="-4.00" shape="4177.16,4293.28 4163.11,4291.50 4159.63,4312.56 4162.11,4337.57 4160.53,4362.21 4157.97,4399.77 4154.15,4423.86 4148.58,4455.93 4144.44,4485.23 4145.22,4493.44 4150.40,4499.25 4156.71,4500.70 4158.94,4497.44 4159.32,4487.02 4163.73,4457.44 4175.50,4409.55 4177.09,4386.80 4177.11,4355.54 4178.14,4335.26 4180.26,4314.98 4179.82,4302.91 4177.16,4293.28"/>
    <poly id="193112936" type="water" color="181,209,209" fill="1" layer="-4.00" shape="4180.52,4462.54 4198.18,4464.05 4208.86,4469.39 4201.71,4528.26 4196.18,4527.13 4171.74,4518.93 4168.48,4512.59 4168.25,4504.38 4172.95,4474.26 4177.45,4464.70 4180.52,4462.54"/>
    <poly id="193113127" type="water" color="181,209,209" fill="1" layer="-4.00" shape="4168.42,4196.38 4162.33,4198.79 4155.19,4195.44 4149.18,4189.07 4147.04,4181.92 4145.49,4171.48 4146.93,4164.91 4151.39,4162.74 4158.53,4165.82 4163.41,4171.38 4166.69,4178.78 4168.75,4191.45 4168.42,4196.38"/>
    <poly id="193113128" type="water" color="181,209,209" fill="1" layer="-4.00" shape="4226.44,4274.28 4207.13,4274.91 4193.35,4272.31 4190.63,4269.00 4191.47,4238.29 4190.99,4200.98 4189.46,4160.37 4191.01,4141.74 4193.55,4105.83 4203.49,4108.92 4215.61,4110.13 4219.15,4114.82 4222.80,4137.90 4224.36,4203.22 4225.09,4241.35 4227.97,4261.10 4226.44,4274.28"/>
    <poly id="193113129" type="water" color="181,209,209" fill="1" layer="-4.00" shape="4159.85,4227.02 4153.87,4221.72 4153.62,4214.89 4154.26,4205.85 4158.47,4201.75 4162.58,4203.98 4166.38,4207.61 4168.83,4213.91 4164.33,4220.20 4163.45,4225.68 4159.85,4227.02"/>
    <poly id="193113130" type="water" color="181,209,209" fill="1" layer="-4.00" shape="4179.87,4153.15 4169.07,4157.71 4163.78,4162.06 4158.33,4157.59 4157.54,4154.01 4165.03,4146.71 4169.01,4138.21 4173.96,4136.64 4181.93,4139.46 4183.13,4150.76 4179.87,4153.15"/>
    <poly id="193113131" type="water" color="181,209,209" fill="1" layer="-4.00" shape="4158.55,4248.40 4154.74,4242.06 4158.97,4233.32 4165.35,4229.54 4171.95,4234.24 4173.82,4238.12 4174.58,4245.81 4167.89,4252.88 4163.97,4258.32 4157.64,4257.44 4157.95,4253.05 4158.55,4248.40"/>
    <poly id="193113133" type="water" color="181,209,209" fill="1" layer="-4.00" shape="4206.59,4039.85 4201.34,4041.73 4195.59,4036.74 4192.08,4028.75 4192.41,4023.26 4206.89,4011.31 4222.90,4007.65 4226.71,4015.88 4219.11,4029.28 4206.59,4039.85"/>
    <poly id="193113134" type="water" color="181,209,209" fill="1" layer="-4.00" shape="4174.36,4094.68 4166.37,4096.22 4156.38,4101.89 4153.63,4098.32 4152.61,4089.53 4153.22,4083.24 4160.74,4078.34 4180.62,4073.62 4186.12,4078.04 4187.40,4085.20 4184.33,4092.56 4174.36,4094.68"/>
    <poly id="193113135" type="water" color="181,209,209" fill="1" layer="-4.00" shape="4223.10,4102.83 4212.88,4104.92 4204.61,4103.19 4200.79,4099.33 4200.57,4093.29 4198.45,4083.67 4199.40,4071.89 4203.84,4068.63 4223.74,4067.98 4225.35,4072.10 4227.96,4084.77 4227.57,4099.55 4223.10,4102.83"/>
    <poly id="193113136" type="water" color="181,209,209" fill="1" layer="-4.00" shape="4189.56,4062.19 4159.13,4073.39 4154.74,4068.72 4150.68,4060.17 4150.19,4054.69 4160.77,4044.09 4182.40,4031.13 4189.54,4038.02 4198.81,4049.08 4194.32,4058.10 4189.56,4062.19"/>
    <poly id="193114138" type="water" color="181,209,209" fill="1" layer="-4.00" shape="3947.51,4192.65 3938.37,4195.30 3935.65,4191.43 3929.17,4177.66 3936.18,4170.31 3944.22,4166.26 3949.40,4172.90 3953.60,4189.68 3947.51,4192.65"/>
    <poly id="193114139" type="residential" color="235,235,227" fill="1" layer="-3.00" shape="3972.32,4194.24 3971.40,4174.49 3971.52,4161.60 3977.97,4156.44 4047.03,4140.65 4096.29,4123.83 4102.47,4141.45 4111.82,4144.01 4114.58,4149.51 4123.74,4201.70 4126.52,4257.96 4047.12,4224.56 4006.69,4208.84 3972.32,4194.24"/>
    <poly id="193114141" type="residential" color="235,235,227" fill="1" layer="-3.00" shape="3822.80,4165.95 3838.54,4076.69 3869.13,4080.27 3926.78,4080.27 3951.91,4076.94 3954.33,4089.29 3964.98,4154.14 3967.22,4184.04 3965.94,4198.03 4018.16,4218.00 4127.85,4262.08 4131.61,4267.07 4134.01,4276.42 4134.32,4279.15 4091.90,4271.89 4067.05,4269.20 4036.77,4268.34 4003.19,4261.17 3968.94,4258.40 3938.66,4257.83 3906.09,4255.34 3879.42,4251.77 3818.17,4246.82 3830.51,4167.12 3822.80,4165.95"/>
    <poly id="193114153" type="residential" color="235,235,227" fill="1" layer="-3.00" shape="3812.11,4245.94 3779.91,4243.70 3744.36,4240.62 3738.30,4232.90 3737.64,4216.44 3724.98,4213.03 3715.89,4187.96 3697.15,4185.31 3650.85,4181.31 3646.04,4159.34 3592.85,4160.74 3592.64,4149.24 3596.87,4118.84 3618.26,4094.08 3623.24,4063.40 3662.38,4064.33 3738.24,4065.04 3769.95,4066.72 3831.94,4074.16 3817.85,4169.73 3824.12,4171.72 3812.11,4245.94"/>
    <poly id="193114499" type="residential" color="235,235,227" fill="1" layer="-3.00" shape="3951.29,4072.01 3925.22,4075.30 3878.27,4076.25 3907.54,3985.46 3804.89,3959.53 3809.22,3945.29 3865.38,3870.13 3884.06,3877.98 3906.30,3882.87 3951.77,3893.71 4006.54,3907.40 4024.07,3914.15 4010.56,3942.82 3996.64,3955.59 3980.29,3964.21 3961.59,4016.97 3951.39,4049.77 3951.29,4072.01"/>
    <poly id="193114500" type="tourism" color="207,245,201" fill="1" layer="-2.00" shape="3774.68,4062.10 3803.75,3964.18 3902.26,3988.98 3873.85,4076.21 3862.01,4073.89 3821.29,4068.55 3793.96,4065.29 3774.68,4062.10"/>
    <poly id="193228466" type="water" color="181,209,209" fill="1" layer="-4.00" shape="3998.76,3964.66 4022.80,3991.24 4033.59,3988.05 4039.71,3980.68 4039.50,3973.82 4034.72,3956.52 4013.53,3949.16 4006.83,3957.60 3998.76,3964.66"/>
    <poly id="193228470" type="residential" color="235,235,227" fill="1" layer="-3.00" shape="3958.89,4095.34 3955.22,4075.20 3955.79,4045.71 3967.97,4011.81 3977.36,3981.46 3983.81,3970.27 3993.24,3965.15 4019.44,3994.47 4037.14,3990.26 4046.57,3986.53 4035.84,3953.79 4015.22,3945.34 4029.03,3916.15 4052.08,3871.11 4059.98,3880.79 4076.23,3911.91 4087.01,3940.02 4092.02,3962.25 4076.82,3965.40 4084.64,3985.25 4073.59,3986.21 4080.28,4009.89 4100.97,4007.59 4104.12,4024.63 4114.24,4034.59 4110.86,4042.82 4111.02,4052.39 4111.97,4069.68 4111.49,4091.35 4109.72,4103.70 4103.02,4112.96 4096.61,4118.36 4039.06,4136.73 3969.94,4153.36 3958.89,4095.34"/>
    <poly id="193228471" type="water" color="181,209,209" fill="1" layer="-4.00" shape="4097.99,3915.13 4093.25,3920.58 4098.57,3943.14 4104.25,3952.22 4103.64,3959.34 4102.49,3965.94 4102.65,3977.47 4109.49,3983.29 4112.29,3977.53 4120.89,3972.95 4118.54,3960.61 4112.31,3946.53 4108.33,3931.16 4105.31,3928.36 4101.25,3920.65 4102.12,3915.99 4097.99,3915.13"/>
    <poly id="193229071" type="water" color="181,209,209" fill="1" layer="-4.00" shape="3493.71,4049.84 3515.62,4067.36 3513.59,4077.72 3428.90,4165.52 3405.32,4150.23 3493.71,4049.84"/>
    <poly id="193229074" type="water" color="181,209,209" fill="1" layer="-4.00" shape="3563.92,3976.45 3551.49,3978.01 3499.90,4037.28 3500.12,4043.35 3500.65,4046.34 3525.56,4065.25 3543.98,4043.21 3566.01,4018.98 3572.20,4005.32 3571.74,3995.73 3569.89,3987.20 3563.92,3976.45"/>
    <poly id="193229077" type="residential" color="235,235,227" fill="1" layer="-3.00" shape="3861.23,3747.77 3880.99,3760.60 3894.94,3773.62 3901.49,3779.14 3945.66,3747.77 3951.19,3746.46 3965.68,3760.31 3981.30,3770.87 3976.00,3776.02 3954.09,3788.42 3925.54,3802.97 3905.00,3817.87 3888.84,3833.33 3874.08,3848.55 3860.08,3869.27 3806.18,3939.79 3774.71,3914.83 3720.94,3970.27 3696.43,3994.98 3685.57,4005.85 3665.88,3987.59 3676.21,3974.77 3662.32,3956.26 3652.82,3938.89 3656.81,3926.31 3665.08,3925.87 3669.83,3920.13 3665.48,3913.78 3679.77,3890.07 3689.52,3879.72 3718.72,3855.03 3740.34,3844.27 3755.30,3837.83 3760.54,3837.06 3783.01,3824.40 3791.02,3823.66 3807.72,3806.51 3830.87,3779.03 3847.04,3762.47 3861.23,3747.77"/>
    <poly id="193229080" type="water" color="181,209,209" fill="1" layer="-4.00" shape="3544.52,4073.35 3539.61,4067.55 3540.81,4058.24 3573.93,4025.67 3579.39,4032.85 3577.34,4045.42 3568.11,4059.04 3555.00,4073.18 3544.52,4073.35"/>
    <poly id="193229086" type="water" color="181,209,209" fill="1" layer="-4.00" shape="3692.11,3926.92 3687.52,3917.00 3701.73,3901.77 3712.43,3908.21 3708.76,3916.68 3708.15,3921.61 3703.96,3928.16 3698.74,3924.79 3692.11,3926.92"/>
    <poly id="193229096" type="residential" color="235,235,227" fill="1" layer="-3.00" shape="3635.97,4058.32 3690.24,4007.27 3732.57,3965.46 3752.80,3943.91 3776.28,3918.80 3803.93,3943.33 3802.47,3952.64 3769.45,4061.50 3737.48,4059.54 3687.27,4059.35 3652.51,4059.02 3635.97,4058.32"/>
    <poly id="193229481" type="water" color="181,209,209" fill="1" layer="-4.00" shape="4019.30,3806.05 4014.62,3804.35 4008.32,3800.18 4002.31,3793.54 4002.08,3788.60 4007.65,3784.84 4011.54,3782.41 4017.56,3787.68 4020.52,3795.11 4023.20,3801.96 4019.30,3806.05"/>
    <poly id="193229483" type="water" color="181,209,209" fill="1" layer="-4.00" shape="4069.15,3843.27 4063.15,3836.64 4058.51,3831.65 4057.79,3819.58 4064.23,3810.34 4076.92,3810.46 4085.98,3814.09 4085.62,3824.53 4080.24,3837.62 4069.15,3843.27"/>
    <poly id="193229484" type="residential" color="235,235,227" fill="1" layer="-3.00" shape="3868.12,3864.95 3876.26,3851.34 3898.52,3831.53 3908.55,3822.03 3928.27,3806.28 3955.73,3792.03 3971.23,3784.20 3985.67,3774.74 4003.30,3778.21 4015.43,3777.75 4027.79,3812.70 4039.60,3847.65 4046.93,3860.64 4046.30,3869.96 4027.42,3909.26 4001.56,3902.15 3933.61,3883.13 3885.42,3873.89 3868.12,3864.95"/>
    <poly id="193229885" type="residential" color="235,235,227" fill="1" layer="-3.00" shape="4130.36,3963.71 4122.63,3963.64 4115.90,3946.29 4103.52,3915.21 4094.40,3915.95 4090.76,3922.77 4086.86,3925.44 4071.19,3890.19 4061.16,3871.72 4056.80,3867.87 4044.85,3845.79 4043.59,3835.65 4066.40,3844.37 4077.98,3843.08 4090.23,3830.86 4091.75,3816.61 4073.92,3806.01 4042.56,3796.11 4029.28,3802.60 4019.04,3774.77 4042.58,3767.07 4053.97,3758.13 4076.28,3731.44 4085.31,3738.92 4091.74,3730.49 4098.85,3737.13 4105.59,3753.11 4107.12,3766.83 4113.70,3770.46 4110.57,3780.86 4140.86,3788.02 4156.86,3788.17 4157.46,3781.03 4169.07,3780.89 4165.47,3751.21 4150.60,3748.32 4131.52,3753.63 4118.72,3735.67 4108.20,3739.41 4093.22,3720.07 4110.19,3705.45 4128.79,3722.91 4145.90,3721.12 4142.42,3708.74 4134.28,3696.35 4129.70,3684.49 4153.30,3669.65 4164.11,3663.72 4171.01,3663.78 4186.21,3658.15 4195.33,3687.61 4199.01,3705.72 4203.58,3717.83 4227.90,3712.58 4234.85,3738.18 4245.68,3787.07 4239.27,3793.60 4242.00,3827.66 4253.29,3828.86 4252.71,3860.37 4252.87,3872.16 4257.03,3901.58 4262.70,3913.70 4246.37,3976.05 4226.93,3989.59 4210.42,3999.09 4151.15,4039.60 4138.89,4052.39 4132.07,4073.16 4140.53,4083.12 4139.68,4143.17 4134.28,4160.96 4139.64,4205.43 4145.05,4246.06 4148.86,4280.94 4138.95,4278.91 4138.21,4269.31 4132.26,4257.74 4127.99,4213.01 4118.73,4141.61 4114.07,4138.54 4107.18,4137.38 4101.54,4122.25 4108.77,4116.00 4113.57,4105.35 4114.78,4093.29 4116.82,4053.00 4117.77,4039.29 4125.60,4030.89 4152.40,4012.82 4135.54,3960.33 4130.36,3963.71"/>