<?xml version="1.0" encoding="UTF-8"?>

<!-- generated on 02/17/18 02:02:27 by SUMO netconvert Version 0.31.0
<?xml version="1.0" encoding="UTF-8"?>

<configuration xmlns:xsi="http://www.w3.org/2001/XMLSchema-instance" xsi:noNamespaceSchemaLocation="http://sumo.dlr.de/xsd/netconvertConfiguration.xsd">

    <input>
        <osm-files value="kolkata_traffics.osm"/>
    </input>

    <output>
        <output-file value="kolkata_traffics.net.xml"/>
    </output>

    <projection>
        <proj.utm value="true"/>
    </projection>

</configuration>
-->

<net version="0.27" xmlns:xsi="http://www.w3.org/2001/XMLSchema-instance" xsi:noNamespaceSchemaLocation="http://sumo.dlr.de/xsd/net_file.xsd">

    <location netOffset="-641595.13,-2491087.08" convBoundary="0.00,0.00,10041.85,6625.27" origBoundary="88.377269,22.471602,88.475230,22.648190" projParameter="+proj=utm +zone=45 +ellps=WGS84 +datum=WGS84 +units=m +no_defs"/>

    <type id="highway.bridleway" priority="1" numLanes="1" speed="2.78" allow="pedestrian" oneway="1" width="2.00"/>
    <type id="highway.bus_guideway" priority="1" numLanes="1" speed="8.33" allow="bus" oneway="1"/>
    <type id="highway.cycleway" priority="1" numLanes="1" speed="5.56" allow="bicycle" oneway="0" width="1.00"/>
    <type id="highway.footway" priority="1" numLanes="1" speed="2.78" allow="pedestrian" oneway="1" width="2.00"/>
    <type id="highway.ford" priority="1" numLanes="1" speed="2.78" allow="army" oneway="0"/>
    <type id="highway.living_street" priority="3" numLanes="1" speed="2.78" disallow="tram rail_urban rail rail_electric ship" oneway="0"/>
    <type id="highway.motorway" priority="13" numLanes="2" speed="44.44" allow="private emergency authority army vip passenger hov taxi bus coach delivery truck trailer motorcycle evehicle custom1 custom2" oneway="1"/>
    <type id="highway.motorway_link" priority="12" numLanes="1" speed="22.22" allow="private emergency authority army vip passenger hov taxi bus coach delivery truck trailer motorcycle evehicle custom1 custom2" oneway="1"/>
    <type id="highway.path" priority="1" numLanes="1" speed="2.78" allow="bicycle pedestrian" oneway="1" width="2.00"/>
    <type id="highway.pedestrian" priority="1" numLanes="1" speed="2.78" allow="pedestrian" oneway="1" width="2.00"/>
    <type id="highway.primary" priority="9" numLanes="2" speed="27.78" disallow="tram rail_urban rail rail_electric ship" oneway="0"/>
    <type id="highway.primary_link" priority="8" numLanes="1" speed="22.22" disallow="tram rail_urban rail rail_electric ship" oneway="0"/>
    <type id="highway.raceway" priority="14" numLanes="2" speed="83.33" allow="vip" oneway="0"/>
    <type id="highway.residential" priority="4" numLanes="1" speed="13.89" disallow="tram rail_urban rail rail_electric ship" oneway="0"/>
    <type id="highway.secondary" priority="7" numLanes="2" speed="27.78" disallow="tram rail_urban rail rail_electric ship" oneway="0"/>
    <type id="highway.secondary_link" priority="6" numLanes="1" speed="22.22" disallow="tram rail_urban rail rail_electric ship" oneway="0"/>
    <type id="highway.service" priority="2" numLanes="1" speed="5.56" allow="delivery bicycle pedestrian" oneway="0"/>
    <type id="highway.services" priority="1" numLanes="1" speed="8.33" disallow="tram rail_urban rail rail_electric ship" oneway="0"/>
    <type id="highway.stairs" priority="1" numLanes="1" speed="1.39" allow="pedestrian" oneway="1" width="2.00"/>
    <type id="highway.step" priority="1" numLanes="1" speed="1.39" allow="pedestrian" oneway="1" width="2.00"/>
    <type id="highway.steps" priority="1" numLanes="1" speed="1.39" allow="pedestrian" oneway="1" width="2.00"/>
    <type id="highway.tertiary" priority="6" numLanes="1" speed="22.22" disallow="tram rail_urban rail rail_electric ship" oneway="0"/>
    <type id="highway.tertiary_link" priority="5" numLanes="1" speed="22.22" disallow="tram rail_urban rail rail_electric ship" oneway="0"/>
    <type id="highway.track" priority="1" numLanes="1" speed="5.56" disallow="tram rail_urban rail rail_electric ship" oneway="0"/>
    <type id="highway.trunk" priority="11" numLanes="2" speed="27.78" disallow="tram rail_urban rail rail_electric bicycle pedestrian ship" oneway="0"/>
    <type id="highway.trunk_link" priority="10" numLanes="1" speed="22.22" disallow="tram rail_urban rail rail_electric bicycle pedestrian ship" oneway="0"/>
    <type id="highway.unclassified" priority="5" numLanes="1" speed="13.89" disallow="tram rail_urban rail rail_electric ship" oneway="0"/>
    <type id="highway.unsurfaced" priority="1" numLanes="1" speed="8.33" disallow="tram rail_urban rail rail_electric ship" oneway="0"/>
    <type id="railway.light_rail" priority="15" numLanes="1" speed="27.78" allow="rail_urban" oneway="1"/>
    <type id="railway.preserved" priority="15" numLanes="1" speed="27.78" allow="rail" oneway="1"/>
    <type id="railway.rail" priority="15" numLanes="1" speed="83.33" allow="rail rail_electric" oneway="1"/>
    <type id="railway.subway" priority="15" numLanes="1" speed="27.78" allow="rail_urban" oneway="1"/>
    <type id="railway.tram" priority="15" numLanes="1" speed="13.89" allow="tram" oneway="1"/>

    <edge id=":1216038309_0" function="internal">
        <lane id=":1216038309_0_0" index="0" disallow="tram rail_urban rail rail_electric ship" speed="27.78" length="4.82" shape="1.64,5738.32 0.70,5739.47 -0.17,5739.80 -0.94,5739.31 -1.64,5737.99"/>
    </edge>
    <edge id=":1278427851_0" function="internal">
        <lane id=":1278427851_0_0" index="0" disallow="tram rail_urban rail rail_electric ship" speed="22.22" length="4.82" shape="82.11,4803.04 80.64,4802.80 79.93,4802.22 79.96,4801.29 80.75,4800.03"/>
    </edge>
    <edge id=":1278428051_0" function="internal">
        <lane id=":1278428051_0_0" index="0" disallow="tram rail_urban rail rail_electric ship" speed="22.22" length="4.82" shape="535.59,4403.64 534.23,4403.05 533.67,4402.32 533.93,4401.43 534.99,4400.39"/>
    </edge>
    <edge id=":1280447488_0" function="internal">
        <lane id=":1280447488_0_0" index="0" disallow="tram rail_urban rail rail_electric ship" speed="22.22" length="4.82" shape="472.50,4499.01 472.74,4497.55 473.32,4496.83 474.24,4496.87 475.51,4497.65"/>
    </edge>
    <edge id=":1307085305_0" function="internal">
        <lane id=":1307085305_0_0" index="0" disallow="tram rail_urban rail rail_electric ship" speed="13.89" length="4.87" shape="4171.68,3664.59 4171.17,3663.38 4170.39,3662.58 4169.35,3662.18 4168.03,3662.19"/>
    </edge>
    <edge id=":1307085305_1" function="internal">
        <lane id=":1307085305_1_0" index="0" disallow="tram rail_urban rail rail_electric ship" speed="13.89" length="9.47" shape="4171.68,3664.59 4171.34,3662.02 4171.76,3659.82 4172.96,3657.99 4174.92,3656.53"/>
    </edge>
    <edge id=":1307085305_2" function="internal">
        <lane id=":1307085305_2_0" index="0" disallow="tram rail_urban rail rail_electric ship" speed="13.89" length="4.82" shape="4171.68,3664.59 4172.16,3663.19 4172.85,3662.58 4173.76,3662.77 4174.87,3663.75"/>
    </edge>
    <edge id=":1307085305_3" function="internal">
        <lane id=":1307085305_3_0" index="0" disallow="tram rail_urban rail rail_electric ship" speed="13.89" length="5.03" shape="4176.50,3659.43 4175.49,3660.19 4174.88,3661.17 4174.67,3662.35 4174.87,3663.75"/>
    </edge>
    <edge id=":1307085305_4" function="internal">
        <lane id=":1307085305_4_0" index="0" disallow="tram rail_urban rail rail_electric ship" speed="13.89" length="8.99" shape="4176.50,3659.43 4174.14,3660.67 4172.45,3661.36 4170.66,3661.78 4168.03,3662.19"/>
    </edge>
    <edge id=":1307085305_5" function="internal">
        <lane id=":1307085305_5_0" index="0" disallow="tram rail_urban rail rail_electric ship" speed="13.89" length="2.41" shape="4176.50,3659.43 4175.02,3659.30 4174.26,3658.77"/>
    </edge>
    <edge id=":1307085305_9" function="internal">
        <lane id=":1307085305_9_0" index="0" speed="13.89" length="2.41" shape="4174.26,3658.77 4174.23,3657.85 4174.92,3656.53"/>
    </edge>
    <edge id=":1307085305_6" function="internal">
        <lane id=":1307085305_6_0" index="0" disallow="tram rail_urban rail rail_electric ship" speed="13.89" length="7.82" shape="4167.55,3658.92 4169.84,3658.57 4171.40,3658.21 4172.87,3657.61 4174.92,3656.53"/>
    </edge>
    <edge id=":1307085305_7" function="internal">
        <lane id=":1307085305_7_0" index="0" disallow="tram rail_urban rail rail_electric ship" speed="13.89" length="4.88" shape="4167.55,3658.92 4170.19,3658.90 4172.29,3659.70"/>
    </edge>
    <edge id=":1307085305_8" function="internal">
        <lane id=":1307085305_8_0" index="0" disallow="tram rail_urban rail rail_electric ship" speed="13.89" length="2.41" shape="4167.55,3658.92 4168.90,3659.56 4169.43,3660.32"/>
    </edge>
    <edge id=":1307085305_10" function="internal">
        <lane id=":1307085305_10_0" index="0" speed="13.89" length="4.88" shape="4172.29,3659.70 4173.85,3661.32 4174.87,3663.75"/>
    </edge>
    <edge id=":1307085305_11" function="internal">
        <lane id=":1307085305_11_0" index="0" speed="13.89" length="2.41" shape="4169.43,3660.32 4169.14,3661.19 4168.03,3662.19"/>
    </edge>
    <edge id=":1307085320_0" function="internal">
        <lane id=":1307085320_0_0" index="0" disallow="tram rail_urban rail rail_electric ship" speed="13.89" length="9.74" shape="3717.72,3979.56 3710.90,3986.51"/>
    </edge>
    <edge id=":1307085320_1" function="internal">
        <lane id=":1307085320_1_0" index="0" allow="delivery bicycle pedestrian" speed="9.73" length="5.35" shape="3717.72,3979.56 3715.53,3981.30 3713.27,3981.91 3713.07,3981.87"/>
    </edge>
    <edge id=":1307085320_2" function="internal">
        <lane id=":1307085320_2_0" index="0" disallow="tram rail_urban rail rail_electric ship" speed="13.89" length="2.41" shape="3717.72,3979.56 3716.28,3979.90 3715.39,3979.64"/>
    </edge>
    <edge id=":1307085320_9" function="internal">
        <lane id=":1307085320_9_0" index="0" speed="9.73" length="5.11" shape="3713.07,3981.87 3710.93,3981.40 3708.52,3979.76"/>
    </edge>
    <edge id=":1307085320_10" function="internal">
        <lane id=":1307085320_10_0" index="0" speed="13.89" length="2.41" shape="3715.39,3979.64 3715.07,3978.77 3715.31,3977.30"/>
    </edge>
    <edge id=":1307085320_3" function="internal">
        <lane id=":1307085320_3_0" index="0" disallow="tram rail_urban rail rail_electric ship" speed="9.73" length="5.20" shape="3710.73,3977.31 3711.95,3978.15 3713.12,3978.43 3714.24,3978.15 3715.31,3977.30"/>
    </edge>
    <edge id=":1307085320_4" function="internal">
        <lane id=":1307085320_4_0" index="0" disallow="tram rail_urban rail rail_electric ship" speed="9.73" length="10.66" shape="3710.73,3977.31 3712.61,3979.57 3713.27,3981.86 3712.70,3984.17 3710.90,3986.51"/>
    </edge>
    <edge id=":1307085320_5" function="internal">
        <lane id=":1307085320_5_0" index="0" allow="delivery bicycle pedestrian" speed="5.56" length="4.82" shape="3710.73,3977.31 3711.09,3978.75 3710.85,3979.64 3709.99,3979.97 3708.52,3979.76"/>
    </edge>
    <edge id=":1307085320_6" function="internal">
        <lane id=":1307085320_6_0" index="0" allow="delivery bicycle pedestrian" speed="9.73" length="5.08" shape="3708.60,3984.14 3709.46,3983.03 3709.73,3981.93 3709.42,3980.84 3708.52,3979.76"/>
    </edge>
    <edge id=":1307085320_7" function="internal">
        <lane id=":1307085320_7_0" index="0" disallow="tram rail_urban rail rail_electric ship" speed="13.89" length="9.58" shape="3708.60,3984.14 3715.31,3977.30"/>
    </edge>
    <edge id=":1307085320_8" function="internal">
        <lane id=":1307085320_8_0" index="0" disallow="tram rail_urban rail rail_electric ship" speed="13.89" length="2.41" shape="3708.60,3984.14 3710.06,3983.87 3710.94,3984.18"/>
    </edge>
    <edge id=":1307085320_11" function="internal">
        <lane id=":1307085320_11_0" index="0" speed="13.89" length="2.41" shape="3710.94,3984.18 3711.22,3985.05 3710.90,3986.51"/>
    </edge>
    <edge id=":1307085343_0" function="internal">
        <lane id=":1307085343_0_0" index="0" disallow="tram rail_urban rail rail_electric ship" speed="13.89" length="8.62" shape="3637.05,4062.10 3628.43,4061.90"/>
    </edge>
    <edge id=":1307085343_1" function="internal">
        <lane id=":1307085343_1_0" index="0" disallow="tram rail_urban rail rail_electric ship" speed="13.89" length="5.05" shape="3637.05,4062.10 3633.36,4061.39 3632.62,4060.32"/>
    </edge>
    <edge id=":1307085343_2" function="internal">
        <lane id=":1307085343_2_0" index="0" disallow="tram rail_urban rail rail_electric ship" speed="13.89" length="2.41" shape="3637.05,4062.10 3635.81,4061.27 3635.40,4060.44"/>
    </edge>
    <edge id=":1307085343_9" function="internal">
        <lane id=":1307085343_9_0" index="0" speed="13.89" length="9.43" shape="3632.62,4060.32 3632.11,4059.58 3633.30,4056.67 3636.91,4052.67"/>
    </edge>
    <edge id=":1307085343_10" function="internal">
        <lane id=":1307085343_10_0" index="0" speed="13.89" length="2.41" shape="3635.40,4060.44 3635.82,4059.62 3637.06,4058.80"/>
    </edge>
    <edge id=":1307085343_3" function="internal">
        <lane id=":1307085343_3_0" index="0" disallow="tram rail_urban rail rail_electric ship" speed="13.89" length="5.03" shape="3639.17,4055.07 3637.58,4056.68 3636.70,4057.84 3636.52,4058.54 3637.06,4058.80"/>
    </edge>
    <edge id=":1307085343_4" function="internal">
        <lane id=":1307085343_4_0" index="0" disallow="tram rail_urban rail rail_electric ship" speed="13.89" length="13.12" shape="3639.17,4055.07 3636.66,4057.59 3634.31,4059.77 3631.71,4061.32 3628.43,4061.90"/>
    </edge>
    <edge id=":1307085343_5" function="internal">
        <lane id=":1307085343_5_0" index="0" disallow="tram rail_urban rail rail_electric ship" speed="13.89" length="4.82" shape="3639.17,4055.07 3637.71,4055.32 3636.84,4055.00 3636.58,4054.12 3636.91,4052.67"/>
    </edge>
    <edge id=":1307085343_6" function="internal">
        <lane id=":1307085343_6_0" index="0" disallow="tram rail_urban rail rail_electric ship" speed="13.89" length="10.84" shape="3628.43,4058.64 3631.35,4058.19 3633.18,4056.95 3634.75,4055.05 3636.91,4052.67"/>
    </edge>
    <edge id=":1307085343_7" function="internal">
        <lane id=":1307085343_7_0" index="0" disallow="tram rail_urban rail rail_electric ship" speed="13.89" length="8.63" shape="3628.43,4058.64 3637.06,4058.80"/>
    </edge>
    <edge id=":1307085343_8" function="internal">
        <lane id=":1307085343_8_0" index="0" disallow="tram rail_urban rail rail_electric ship" speed="13.89" length="2.38" shape="3628.43,4058.64 3629.66,4059.45 3630.07,4060.27"/>
    </edge>
    <edge id=":1307085343_11" function="internal">
        <lane id=":1307085343_11_0" index="0" speed="13.89" length="2.38" shape="3630.07,4060.27 3629.66,4061.09 3628.43,4061.90"/>
    </edge>
    <edge id=":1307085369_0" function="internal">
        <lane id=":1307085369_0_0" index="0" disallow="tram rail_urban rail rail_electric ship" speed="13.89" length="6.45" shape="3954.63,3749.09 3952.98,3747.78 3951.48,3746.92 3950.13,3746.49 3948.93,3746.50"/>
    </edge>
    <edge id=":1307085369_1" function="internal">
        <lane id=":1307085369_1_0" index="0" disallow="tram rail_urban rail rail_electric ship" speed="13.89" length="11.32" shape="3954.63,3749.09 3952.56,3746.65 3951.93,3744.27 3952.72,3741.93 3954.93,3739.63"/>
    </edge>
    <edge id=":1307085369_2" function="internal">
        <lane id=":1307085369_2_0" index="0" disallow="tram rail_urban rail rail_electric ship" speed="13.89" length="4.82" shape="3954.63,3749.09 3954.25,3747.65 3954.48,3746.76 3955.34,3746.41 3956.81,3746.61"/>
    </edge>
    <edge id=":1307085369_3" function="internal">
        <lane id=":1307085369_3_0" index="0" disallow="tram rail_urban rail rail_electric ship" speed="13.89" length="5.24" shape="3956.95,3742.24 3955.93,3743.30 3955.56,3744.38 3955.86,3745.49 3956.81,3746.61"/>
    </edge>
    <edge id=":1307085369_4" function="internal">
        <lane id=":1307085369_4_0" index="0" disallow="tram rail_urban rail rail_electric ship" speed="13.89" length="9.23" shape="3956.95,3742.24 3954.81,3743.95 3953.26,3745.07 3951.56,3745.84 3948.93,3746.50"/>
    </edge>
    <edge id=":1307085369_5" function="internal">
        <lane id=":1307085369_5_0" index="0" disallow="tram rail_urban rail rail_electric ship" speed="13.89" length="4.82" shape="3956.95,3742.24 3955.47,3742.35 3954.64,3741.95 3954.46,3741.04 3954.93,3739.63"/>
    </edge>
    <edge id=":1307085369_6" function="internal">
        <lane id=":1307085369_6_0" index="0" disallow="tram rail_urban rail rail_electric ship" speed="13.89" length="7.71" shape="3948.27,3743.26 3950.46,3742.70 3951.87,3742.04 3953.15,3741.07 3954.93,3739.63"/>
    </edge>
    <edge id=":1307085369_7" function="internal">
        <lane id=":1307085369_7_0" index="0" disallow="tram rail_urban rail rail_electric ship" speed="13.89" length="9.49" shape="3948.27,3743.26 3950.25,3743.18 3952.34,3743.71 3954.52,3744.85 3956.81,3746.61"/>
    </edge>
    <edge id=":1307085369_8" function="internal">
        <lane id=":1307085369_8_0" index="0" disallow="tram rail_urban rail rail_electric ship" speed="13.89" length="4.82" shape="3948.27,3743.26 3949.65,3743.83 3950.22,3744.55 3949.98,3745.44 3948.93,3746.50"/>
    </edge>
    <edge id=":1307085373_0" function="internal">
        <lane id=":1307085373_0_0" index="0" disallow="tram rail_urban rail rail_electric ship" speed="13.89" length="4.96" shape="3953.05,4078.24 3952.64,4076.95 3951.91,4076.09 3950.87,4075.66 3949.51,4075.66"/>
    </edge>
    <edge id=":1307085373_1" function="internal">
        <lane id=":1307085373_1_0" index="0" disallow="tram rail_urban rail rail_electric ship" speed="13.89" length="11.00" shape="3953.05,4078.24 3952.57,4075.15 3952.32,4072.79 3952.24,4070.42 3952.22,4067.29"/>
    </edge>
    <edge id=":1307085373_2" function="internal">
        <lane id=":1307085373_2_0" index="0" allow="delivery bicycle pedestrian" speed="9.73" length="5.30" shape="3953.05,4078.24 3953.04,4075.48 3954.04,4073.15"/>
    </edge>
    <edge id=":1307085373_3" function="internal">
        <lane id=":1307085373_3_0" index="0" disallow="tram rail_urban rail rail_electric ship" speed="13.89" length="2.41" shape="3953.05,4078.24 3953.65,4076.88 3954.40,4076.33"/>
    </edge>
    <edge id=":1307085373_16" function="internal">
        <lane id=":1307085373_16_0" index="0" speed="9.73" length="6.12" shape="3954.04,4073.15 3956.05,4071.25 3959.07,4069.79"/>
    </edge>
    <edge id=":1307085373_17" function="internal">
        <lane id=":1307085373_17_0" index="0" speed="13.89" length="2.41" shape="3954.40,4076.33 3955.28,4076.60 3956.30,4077.68"/>
    </edge>
    <edge id=":1307085373_4" function="internal">
        <lane id=":1307085373_4_0" index="0" disallow="tram rail_urban rail rail_electric ship" speed="9.73" length="6.73" shape="3960.17,4072.90 3958.27,4073.79 3956.99,4074.88 3956.34,4076.17 3956.30,4077.68"/>
    </edge>
    <edge id=":1307085373_5" function="internal">
        <lane id=":1307085373_5_0" index="0" disallow="tram rail_urban rail rail_electric ship" speed="9.73" length="11.04" shape="3960.17,4072.90 3957.21,4073.94 3954.93,4074.64 3952.60,4075.17 3949.51,4075.66"/>
    </edge>
    <edge id=":1307085373_6" function="internal">
        <lane id=":1307085373_6_0" index="0" disallow="tram rail_urban rail rail_electric ship" speed="9.73" length="12.24" shape="3960.17,4072.90 3956.70,4073.60 3954.22,4072.90 3952.73,4070.80 3952.22,4067.29"/>
    </edge>
    <edge id=":1307085373_7" function="internal">
        <lane id=":1307085373_7_0" index="0" allow="delivery bicycle pedestrian" speed="5.56" length="4.82" shape="3960.17,4072.90 3958.73,4072.54 3958.07,4071.90 3958.18,4070.98 3959.07,4069.79"/>
    </edge>
    <edge id=":1307085373_8" function="internal">
        <lane id=":1307085373_8_0" index="0" allow="delivery bicycle pedestrian" speed="9.73" length="5.47" shape="3955.52,4067.29 3955.75,4068.85 3956.41,4069.79 3957.52,4070.10 3959.07,4069.79"/>
    </edge>
    <edge id=":1307085373_9" function="internal">
        <lane id=":1307085373_9_0" index="0" disallow="tram rail_urban rail rail_electric ship" speed="13.89" length="10.44" shape="3955.52,4067.29 3955.53,4070.33 3955.60,4072.51 3955.82,4074.68 3956.30,4077.68"/>
    </edge>
    <edge id=":1307085373_10" function="internal">
        <lane id=":1307085373_10_0" index="0" disallow="tram rail_urban rail rail_electric ship" speed="13.89" length="6.11" shape="3955.52,4067.29 3955.15,4070.63 3954.03,4073.14"/>
    </edge>
    <edge id=":1307085373_11" function="internal">
        <lane id=":1307085373_11_0" index="0" disallow="tram rail_urban rail rail_electric ship" speed="13.89" length="2.41" shape="3955.52,4067.29 3954.70,4068.53 3953.88,4068.94"/>
    </edge>
    <edge id=":1307085373_18" function="internal">
        <lane id=":1307085373_18_0" index="0" speed="13.89" length="5.29" shape="3954.03,4073.14 3952.15,4074.82 3949.51,4075.66"/>
    </edge>
    <edge id=":1307085373_19" function="internal">
        <lane id=":1307085373_19_0" index="0" speed="13.89" length="2.41" shape="3953.88,4068.94 3953.05,4068.53 3952.22,4067.29"/>
    </edge>
    <edge id=":1307085373_12" function="internal">
        <lane id=":1307085373_12_0" index="0" disallow="tram rail_urban rail rail_electric ship" speed="13.89" length="6.61" shape="3949.05,4072.39 3950.44,4071.90 3951.43,4070.89 3952.03,4069.35 3952.22,4067.29"/>
    </edge>
    <edge id=":1307085373_13" function="internal">
        <lane id=":1307085373_13_0" index="0" allow="delivery bicycle pedestrian" speed="9.73" length="10.39" shape="3949.05,4072.39 3952.04,4071.92 3954.15,4071.45 3956.21,4070.80 3959.07,4069.79"/>
    </edge>
    <edge id=":1307085373_14" function="internal">
        <lane id=":1307085373_14_0" index="0" disallow="tram rail_urban rail rail_electric ship" speed="13.89" length="10.17" shape="3949.05,4072.39 3951.82,4072.39 3953.96,4073.27 3955.45,4075.04 3956.30,4077.68"/>
    </edge>
    <edge id=":1307085373_15" function="internal">
        <lane id=":1307085373_15_0" index="0" disallow="tram rail_urban rail rail_electric ship" speed="13.89" length="4.82" shape="3949.05,4072.39 3950.39,4073.04 3950.91,4073.79 3950.62,4074.67 3949.51,4075.66"/>
    </edge>
    <edge id=":1307085388_0" function="internal">
        <lane id=":1307085388_0_0" index="0" disallow="tram rail_urban rail rail_electric ship" speed="9.73" length="5.78" shape="4127.05,3689.95 4126.29,3688.40 4125.34,3687.73 4124.20,3687.94 4122.87,3689.05"/>
    </edge>
    <edge id=":1307085388_1" function="internal">
        <lane id=":1307085388_1_0" index="0" disallow="tram rail_urban rail rail_electric ship" speed="9.73" length="11.72" shape="4127.05,3689.95 4126.19,3686.34 4126.19,3683.35 4127.08,3680.97 4128.83,3679.21"/>
    </edge>
    <edge id=":1307085388_2" function="internal">
        <lane id=":1307085388_2_0" index="0" allow="delivery bicycle pedestrian" speed="5.56" length="4.82" shape="4127.05,3689.95 4127.44,3688.52 4128.10,3687.87 4129.01,3688.00 4130.18,3688.91"/>
    </edge>
    <edge id=":1307085388_3" function="internal">
        <lane id=":1307085388_3_0" index="0" allow="delivery bicycle pedestrian" speed="9.73" length="7.41" shape="4130.65,3681.97 4129.77,3682.96 4129.40,3684.45 4129.54,3686.44 4130.18,3688.91"/>
    </edge>
    <edge id=":1307085388_4" function="internal">
        <lane id=":1307085388_4_0" index="0" disallow="tram rail_urban rail rail_electric ship" speed="13.89" length="10.56" shape="4130.65,3681.97 4128.15,3683.72 4126.47,3685.16 4124.93,3686.78 4122.87,3689.05"/>
    </edge>
    <edge id=":1307085388_5" function="internal">
        <lane id=":1307085388_5_0" index="0" disallow="tram rail_urban rail rail_electric ship" speed="13.89" length="2.41" shape="4130.65,3681.97 4129.16,3681.96 4128.36,3681.50"/>
    </edge>
    <edge id=":1307085388_9" function="internal">
        <lane id=":1307085388_9_0" index="0" speed="13.89" length="2.41" shape="4128.36,3681.50 4128.25,3680.58 4128.83,3679.21"/>
    </edge>
    <edge id=":1307085388_6" function="internal">
        <lane id=":1307085388_6_0" index="0" disallow="tram rail_urban rail rail_electric ship" speed="13.89" length="11.35" shape="4120.45,3686.80 4122.60,3684.46 4124.35,3682.67 4126.24,3681.05 4128.83,3679.21"/>
    </edge>
    <edge id=":1307085388_7" function="internal">
        <lane id=":1307085388_7_0" index="0" allow="delivery bicycle pedestrian" speed="9.73" length="6.03" shape="4120.45,3686.80 4123.55,3684.24 4125.52,3683.87"/>
    </edge>
    <edge id=":1307085388_8" function="internal">
        <lane id=":1307085388_8_0" index="0" disallow="tram rail_urban rail rail_electric ship" speed="13.89" length="2.41" shape="4120.45,3686.80 4121.89,3686.46 4122.78,3686.71"/>
    </edge>
    <edge id=":1307085388_10" function="internal">
        <lane id=":1307085388_10_0" index="0" speed="9.73" length="7.42" shape="4125.52,3683.87 4126.21,3683.74 4128.42,3685.30 4130.18,3688.91"/>
    </edge>
    <edge id=":1307085388_11" function="internal">
        <lane id=":1307085388_11_0" index="0" speed="13.89" length="2.41" shape="4122.78,3686.71 4123.10,3687.58 4122.87,3689.05"/>
    </edge>
    <edge id=":1307085390_0" function="internal">
        <lane id=":1307085390_0_0" index="0" disallow="tram rail_urban rail rail_electric ship" speed="13.89" length="9.63" shape="3690.69,4006.33 3683.81,4013.05"/>
    </edge>
    <edge id=":1307085390_1" function="internal">
        <lane id=":1307085390_1_0" index="0" allow="delivery bicycle pedestrian" speed="9.73" length="5.12" shape="3690.69,4006.33 3688.53,4007.90 3686.25,4008.42 3686.15,4008.40"/>
    </edge>
    <edge id=":1307085390_2" function="internal">
        <lane id=":1307085390_2_0" index="0" disallow="tram rail_urban rail rail_electric ship" speed="13.89" length="2.41" shape="3690.69,4006.33 3689.24,4006.62 3688.36,4006.33"/>
    </edge>
    <edge id=":1307085390_9" function="internal">
        <lane id=":1307085390_9_0" index="0" speed="9.73" length="5.31" shape="3686.15,4008.40 3683.86,4007.88 3681.36,4006.29"/>
    </edge>
    <edge id=":1307085390_10" function="internal">
        <lane id=":1307085390_10_0" index="0" speed="13.89" length="2.41" shape="3688.36,4006.33 3688.07,4005.45 3688.37,4003.99"/>
    </edge>
    <edge id=":1307085390_3" function="internal">
        <lane id=":1307085390_3_0" index="0" disallow="tram rail_urban rail rail_electric ship" speed="9.73" length="5.47" shape="3683.46,4003.75 3684.82,4004.64 3686.09,4004.97 3687.28,4004.76 3688.37,4003.99"/>
    </edge>
    <edge id=":1307085390_4" function="internal">
        <lane id=":1307085390_4_0" index="0" disallow="tram rail_urban rail rail_electric ship" speed="9.73" length="10.92" shape="3683.46,4003.75 3685.51,4006.00 3686.24,4008.31 3685.68,4010.66 3683.81,4013.05"/>
    </edge>
    <edge id=":1307085390_5" function="internal">
        <lane id=":1307085390_5_0" index="0" allow="delivery bicycle pedestrian" speed="5.56" length="4.82" shape="3683.46,4003.75 3683.89,4005.17 3683.68,4006.07 3682.84,4006.44 3681.36,4006.29"/>
    </edge>
    <edge id=":1307085390_6" function="internal">
        <lane id=":1307085390_6_0" index="0" allow="delivery bicycle pedestrian" speed="9.73" length="5.14" shape="3681.52,4010.67 3682.40,4009.54 3682.67,4008.44 3682.32,4007.35 3681.36,4006.29"/>
    </edge>
    <edge id=":1307085390_7" function="internal">
        <lane id=":1307085390_7_0" index="0" disallow="tram rail_urban rail rail_electric ship" speed="13.89" length="9.57" shape="3681.52,4010.67 3688.37,4003.99"/>
    </edge>
    <edge id=":1307085390_8" function="internal">
        <lane id=":1307085390_8_0" index="0" disallow="tram rail_urban rail rail_electric ship" speed="13.89" length="2.41" shape="3681.52,4010.67 3682.98,4010.41 3683.85,4010.72"/>
    </edge>
    <edge id=":1307085390_11" function="internal">
        <lane id=":1307085390_11_0" index="0" speed="13.89" length="2.41" shape="3683.85,4010.72 3684.13,4011.60 3683.81,4013.05"/>
    </edge>
    <edge id=":1307085400_0" function="internal">
        <lane id=":1307085400_0_0" index="0" disallow="tram rail_urban rail rail_electric ship" speed="13.89" length="9.44" shape="3797.26,3895.70 3791.02,3902.79"/>
    </edge>
    <edge id=":1307085400_1" function="internal">
        <lane id=":1307085400_1_0" index="0" allow="delivery bicycle pedestrian" speed="9.73" length="5.24" shape="3797.26,3895.70 3795.05,3897.56 3792.79,3898.24"/>
    </edge>
    <edge id=":1307085400_2" function="internal">
        <lane id=":1307085400_2_0" index="0" disallow="tram rail_urban rail rail_electric ship" speed="13.89" length="2.41" shape="3797.26,3895.70 3795.82,3896.07 3794.93,3895.83"/>
    </edge>
    <edge id=":1307085400_9" function="internal">
        <lane id=":1307085400_9_0" index="0" speed="9.73" length="5.24" shape="3792.79,3898.24 3790.49,3897.75 3788.14,3896.08"/>
    </edge>
    <edge id=":1307085400_10" function="internal">
        <lane id=":1307085400_10_0" index="0" speed="13.89" length="2.41" shape="3794.93,3895.83 3794.58,3894.98 3794.79,3893.50"/>
    </edge>
    <edge id=":1307085400_3" function="internal">
        <lane id=":1307085400_3_0" index="0" disallow="tram rail_urban rail rail_electric ship" speed="9.73" length="5.04" shape="3790.41,3893.68 3791.54,3894.49 3792.65,3894.72 3793.73,3894.40 3794.79,3893.50"/>
    </edge>