<?xml version="1.0" encoding="UTF-8"?>
<!-- generated on 2018-02-17 02:05:16.074906 by $Id$
  options: -n kolkata_traffics.net.xml -r kolkata_traffics.rou.xml -e 100 -l
-->
<routes xmlns:xsi="http://www.w3.org/2001/XMLSchema-instance" xsi:noNamespaceSchemaLocation="http://sumo.dlr.de/xsd/routes_file.xsd">
    <trip id="0" depart="0.00" from="153755861" to="-112492225#5"/>
    <trip id="1" depart="1.00" from="193112930#1" to="254678149#3"/>
    <trip id="2" depart="2.00" from="115779423#0" to="-195116182"/>
    <trip id="3" depart="3.00" from="115779423#0" to="254678157#0"/>
    <trip id="4" depart="4.00" from="112492225#0" to="-235060482#10"/>
    <trip id="5" depart="5.00" from="-193114342#9" to="112492225#3"/>
    <trip id="6" depart="6.00" from="-112492225#5" to="192966970#1"/>
    <trip id="7" depart="7.00" from="-331478227" to="-199230922"/>
    <trip id="8" depart="8.00" from="-162339443#0" to="235060482#10"/>
    <trip id="9" depart="9.00" from="-325486000#3" to="543842234"/>
    <trip id="10" depart="10.00" from="325485998#0" to="-192969309#2"/>
    <trip id="11" depart="11.00" from="-192966155#1" to="-112697458#0"/>
    <trip id="12" depart="12.00" from="115779423#0" to="255225680"/>
    <trip id="13" depart="13.00" from="-112492225#1" to="-235061908"/>
    <trip id="14" depart="14.00" from="115779423#0" to="-192969309#2"/>
    <trip id="15" depart="15.00" from="254678149#3" to="-236881359#0"/>
    <trip id="16" depart="16.00" from="112697458#0" to="192966684"/>
    <trip id="17" depart="17.00" from="440186517#0" to="-255225680"/>
    <trip id="18" depart="18.00" from="195116182" to="331478227"/>
    <trip id="19" depart="19.00" from="-325486000#5" to="112492225#3"/>
    <trip id="20" depart="20.00" from="254678157#1" to="193112711"/>
    <trip id="21" depart="21.00" from="-331478227" to="241578436#0"/>
    <trip id="22" depart="22.00" from="192966158" to="-115779423#0"/>
    <trip id="23" depart="23.00" from="193229069#1" to="-115779423#0"/>
    <trip id="24" depart="24.00" from="115774712#2" to="-112697458#8"/>
    <trip id="25" depart="25.00" from="236881361#0" to="-51765915#9"/>
    <trip id="26" depart="26.00" from="-192967359" to="-254678160"/>
    <trip id="27" depart="27.00" from="255225680" to="-112697458#1"/>
    <trip id="28" depart="28.00" from="-162339443#3" to="-192927618#1"/>
    <trip id="29" depart="29.00" from="193229069#1" to="331385828"/>
    <trip id="30" depart="30.00" from="325485998#0" to="-112492225#0"/>
    <trip id="31" depart="31.00" from="-51765915#7" to="-235060973#1"/>
    <trip id="32" depart="32.00" from="192927618#0" to="192966966#1"/>
    <trip id="33" depart="33.00" from="235061908" to="-112492225#8"/>
    <trip id="34" depart="34.00" from="153898262#0" to="-192969315#0"/>
    <trip id="35" depart="35.00" from="112697458#0" to="193112930#1"/>
    <trip id="36" depart="36.00" from="-192965840" to="153755342"/>
    <trip id="37" depart="37.00" from="-236881360#0" to="-331385829#1"/>
    <trip id="38" depart="38.00" from="-236881360#0" to="254612194"/>
    <trip id="39" depart="39.00" from="-325486000#1" to="-115774712#0"/>
    <trip id="40" depart="40.00" from="112492225#1" to="192967359"/>
    <trip id="41" depart="41.00" from="-440186518" to="549861281#2"/>
    <trip id="42" depart="42.00" from="153898264" to="-193228463"/>
    <trip id="43" depart="43.00" from="-235060973#1" to="236881357#3"/>
    <trip id="44" depart="44.00" from="115779423#0" to="331385829#0"/>
    <trip id="45" depart="45.00" from="112697458#1" to="-325486000#3"/>
    <trip id="46" depart="46.00" from="115779423#0" to="255225680"/>
    <trip id="47" depart="47.00" from="153898264" to="153756749#1"/>
    <trip id="48" depart="48.00" from="192965842#1" to="192927635#2"/>
    <trip id="49" depart="49.00" from="192969312#6" to="112697458#4"/>
    <trip id="50" depart="50.00" from="-325486000#3" to="-255225683"/>
    <trip id="51" depart="51.00" from="115779423#0" to="192969312#2"/>
    <trip id="52" depart="52.00" from="-192965835" to="-254678157#0"/>
    <trip id="53" depart="53.00" from="-51765915#0" to="193114151#2"/>
    <trip id="54" depart="54.00" from="-235060969#0" to="162339443#3"/>
    <trip id="55" depart="55.00" from="455700014#0" to="112697458#5"/>
    <trip id="56" depart="56.00" from="-192930090#3" to="-115779423#0"/>
    <trip id="57" depart="57.00" from="-321648601#0" to="-115779423#0"/>
    <trip id="58" depart="58.00" from="-192969655#9" to="-115779423#0"/>
    <trip id="59" depart="59.00" from="193229069#2" to="549861281#1"/>
    <trip id="60" depart="60.00" from="325485998#0" to="153898251"/>
    <trip id="61" depart="61.00" from="-235061908" to="235061271#1"/>
    <trip id="62" depart="62.00" from="199230922" to="192930091#4"/>
    <trip id="63" depart="63.00" from="162339443#0" to="325486000#1"/>
    <trip id="64" depart="64.00" from="331385829#1" to="-115779423#0"/>
    <trip id="65" depart="65.00" from="-51765915#3" to="-115779423#0"/>
    <trip id="66" depart="66.00" from="-331478206#1" to="-543842233#0"/>
    <trip id="67" depart="67.00" from="235060975#0" to="112697458#8"/>
    <trip id="68" depart="68.00" from="115774712#0" to="-115779423#0"/>
    <trip id="69" depart="69.00" from="-112697458#1" to="-195116182"/>
    <trip id="70" depart="70.00" from="115779423#0" to="-254678160"/>
    <trip id="71" depart="71.00" from="-254612195#0" to="331478206#1"/>
    <trip id="72" depart="72.00" from="-51765915#1" to="-112697458#0"/>
    <trip id="73" depart="73.00" from="-192927635#0" to="254612194"/>
    <trip id="74" depart="74.00" from="-192965954#4" to="153690561#1"/>
    <trip id="75" depart="75.00" from="153753348#2" to="236881360#1"/>
    <trip id="76" depart="76.00" from="-192927635#2" to="-192930091#1"/>
    <trip id="77" depart="77.00" from="325486000#1" to="254609060#1"/>
    <trip id="78" depart="78.00" from="-331478206#1" to="325486000#5"/>
    <trip id="79" depart="79.00" from="-192930090#4" to="162339443#3"/>
    <trip id="80" depart="80.00" from="192969653#0" to="235060975#2"/>
    <trip id="81" depart="81.00" from="51765915#0" to="254609061"/>
    <trip id="82" depart="82.00" from="-112697458#1" to="-254678149#5"/>
    <trip id="83" depart="83.00" from="153799833#0" to="-321648602"/>
    <trip id="84" depart="84.00" from="-112697458#5" to="153760218"/>
    <trip id="85" depart="85.00" from="-192967359" to="-236881358#0"/>
    <trip id="86" depart="86.00" from="-331478206#1" to="-115779423#0"/>
    <trip id="87" depart="87.00" from="325486000#2" to="-325485998#0"/>
    <trip id="88" depart="88.00" from="162339443#2" to="-112697458#0"/>
    <trip id="89" depart="89.00" from="51765915#4" to="153753348#4"/>
    <trip id="90" depart="90.00" from="115779423#0" to="192969655#9"/>
    <trip id="91" depart="91.00" from="115779423#0" to="-193112575"/>
    <trip id="92" depart="92.00" from="254612195#0" to="-112697458#10"/>
    <trip id="93" depart="93.00" from="153755754#2" to="192965780#1"/>
    <trip id="94" depart="94.00" from="-192965748#1" to="51765915#3"/>
    <trip id="95" depart="95.00" from="235060973#1" to="-192969655#12"/>
    <trip id="96" depart="96.00" from="115774712#2" to="162339443#3"/>
    <trip id="97" depart="97.00" from="153755759" to="193114497"/>
    <trip id="98" depart="98.00" from="115779423#0" to="153753347#1"/>
    <trip id="99" depart="99.00" from="112492225#0" to="-254609060#0"/>
</routes>
