<?xml version="1.0" encoding="UTF-8"?>
<!-- generated on 2018-02-07 01:44:34.964999 by $Id$
  options: -n kolkata.net.xml -r kolkata.rou.xml -e 100 -l
-->
<routes xmlns:xsi="http://www.w3.org/2001/XMLSchema-instance" xsi:noNamespaceSchemaLocation="http://sumo.dlr.de/xsd/routes_file.xsd">
    <trip id="0" depart="0.00" from="-325486000#4" to="543842233#0"/>
    <trip id="1" depart="1.00" from="-254612195#0" to="112699325#4"/>
    <trip id="2" depart="2.00" from="195110758#1" to="-455700014#0"/>
    <trip id="3" depart="3.00" from="254678151#0" to="-192969309#0"/>
    <trip id="4" depart="4.00" from="-51765915#0" to="195110758#1"/>
    <trip id="5" depart="5.00" from="-192969315#0" to="-193114147#10"/>
    <trip id="6" depart="6.00" from="-254678161" to="192969309#0"/>
    <trip id="7" depart="7.00" from="193229069#0" to="-193114147#8"/>
    <trip id="8" depart="8.00" from="235060969#2" to="51765915#0"/>
    <trip id="9" depart="9.00" from="192965838#0" to="-193229069#2"/>
    <trip id="10" depart="10.00" from="331385829#1" to="193112711"/>
    <trip id="11" depart="11.00" from="115779423#0" to="-192927635#0"/>
    <trip id="12" depart="12.00" from="325486000#3" to="115774711#3"/>
    <trip id="13" depart="13.00" from="193114147#4" to="153755754#1"/>
    <trip id="14" depart="14.00" from="-235061011#1" to="-254678157#0"/>
    <trip id="15" depart="15.00" from="325486000#3" to="-192965998#0"/>
    <trip id="16" depart="16.00" from="254678155" to="153760218"/>
    <trip id="17" depart="17.00" from="112697458#1" to="224918733"/>
    <trip id="18" depart="18.00" from="-162339443#0" to="153898262#1"/>
    <trip id="19" depart="19.00" from="-192965781#1" to="-255225680"/>
    <trip id="20" depart="20.00" from="235061271#1" to="236881361#2"/>
    <trip id="21" depart="21.00" from="192966680" to="193229069#2"/>
    <trip id="22" depart="22.00" from="-162339443#3" to="-422439059"/>
    <trip id="23" depart="23.00" from="-112492225#1" to="235060969#3"/>
    <trip id="24" depart="24.00" from="51765915#3" to="321648600#1"/>
    <trip id="25" depart="25.00" from="115779423#0" to="153760217"/>
    <trip id="26" depart="26.00" from="195116182" to="-112492225#0"/>
    <trip id="27" depart="27.00" from="192969309#0" to="193114147#13"/>
    <trip id="28" depart="28.00" from="51765915#8" to="-112492225#0"/>
    <trip id="29" depart="29.00" from="112699325#1" to="254678151#3"/>
    <trip id="30" depart="30.00" from="-193114151#2" to="235061908"/>
    <trip id="31" depart="31.00" from="-112699325#0" to="-115779423#0"/>
    <trip id="32" depart="32.00" from="254678150#0" to="-235060972#1"/>
    <trip id="33" depart="33.00" from="115779423#0" to="254678157#3"/>
    <trip id="34" depart="34.00" from="254678148#0" to="112699325#4"/>
    <trip id="35" depart="35.00" from="-193114345#3" to="-195116182"/>
    <trip id="36" depart="36.00" from="192965835" to="112697458#1"/>
    <trip id="37" depart="37.00" from="-235060973#1" to="-115774711#3"/>
    <trip id="38" depart="38.00" from="192966683" to="-115779423#0"/>
    <trip id="39" depart="39.00" from="193114342#1" to="321648602"/>
    <trip id="40" depart="40.00" from="-51765915#4" to="162339443#3"/>
    <trip id="41" depart="41.00" from="112492225#5" to="51765915#0"/>
    <trip id="42" depart="42.00" from="-192965748#1" to="-112492225#0"/>
    <trip id="43" depart="43.00" from="-193229069#2" to="-112492225#0"/>
    <trip id="44" depart="44.00" from="51765915#7" to="-112699325#2"/>
    <trip id="45" depart="45.00" from="-112699325#4" to="-112492225#5"/>
    <trip id="46" depart="46.00" from="153753348#5" to="-254678153"/>
    <trip id="47" depart="47.00" from="-112697458#1" to="-112697458#5"/>
    <trip id="48" depart="48.00" from="115779423#0" to="112492225#3"/>
    <trip id="49" depart="49.00" from="112697458#5" to="-51765915#0"/>
    <trip id="50" depart="50.00" from="-321648601#0" to="192927635#2"/>
    <trip id="51" depart="51.00" from="-254609061" to="-331385827"/>
    <trip id="52" depart="52.00" from="195116182" to="325486000#2"/>
    <trip id="53" depart="53.00" from="-255225680" to="-192969312#6"/>
    <trip id="54" depart="54.00" from="-325486000#1" to="-195116182"/>
    <trip id="55" depart="55.00" from="-193114143" to="192966970#0"/>
    <trip id="56" depart="56.00" from="192969309#2" to="112697458#1"/>
    <trip id="57" depart="57.00" from="325485998#0" to="-115774712#12"/>
    <trip id="58" depart="58.00" from="115779423#0" to="-115779423#0"/>
    <trip id="59" depart="59.00" from="-192930090#8" to="-115779423#0"/>
    <trip id="60" depart="60.00" from="-192930217#3" to="-115779423#0"/>
    <trip id="61" depart="61.00" from="-543842234" to="-192965835"/>
    <trip id="62" depart="62.00" from="112492225#0" to="112699325#0"/>
    <trip id="63" depart="63.00" from="-51765915#1" to="153755754#1"/>
    <trip id="64" depart="64.00" from="-162339443#3" to="254612194"/>
    <trip id="65" depart="65.00" from="153755760#1" to="-254678149#3"/>
    <trip id="66" depart="66.00" from="-112492225#1" to="-192930090#14"/>
    <trip id="67" depart="67.00" from="235060482#0" to="255225680"/>
    <trip id="68" depart="68.00" from="-236881359#0" to="112697458#1"/>
    <trip id="69" depart="69.00" from="254678148#0" to="-162339443#0"/>
    <trip id="70" depart="70.00" from="192966156" to="-112697458#2"/>
    <trip id="71" depart="71.00" from="-325486000#5" to="-192965954#0"/>
    <trip id="72" depart="72.00" from="235060970#1" to="-115779423#0"/>
    <trip id="73" depart="73.00" from="-331385834" to="-325486000#2"/>
    <trip id="74" depart="74.00" from="-112697458#1" to="455700014#0"/>
    <trip id="75" depart="75.00" from="112697458#2" to="153755760#1"/>
    <trip id="76" depart="76.00" from="112697458#1" to="-195110758#1"/>
    <trip id="77" depart="77.00" from="115774712#3" to="254612195#0"/>
    <trip id="78" depart="78.00" from="193114151#1" to="-254678157#0"/>
    <trip id="79" depart="79.00" from="192967359" to="254678158#1"/>
    <trip id="80" depart="80.00" from="115779423#0" to="193114147#6"/>
    <trip id="81" depart="81.00" from="-254678159#1" to="-112697458#0"/>
    <trip id="82" depart="82.00" from="-241578438#1" to="115774712#12"/>
    <trip id="83" depart="83.00" from="115779423#0" to="-112697458#1"/>
    <trip id="84" depart="84.00" from="235061271#0" to="162339443#0"/>
    <trip id="85" depart="85.00" from="192969309#1" to="235060973#1"/>
    <trip id="86" depart="86.00" from="115779423#0" to="-422439059"/>
    <trip id="87" depart="87.00" from="331385826#0" to="-422439059"/>
    <trip id="88" depart="88.00" from="254678149#3" to="115774712#12"/>
    <trip id="89" depart="89.00" from="-192965998#0" to="-115779423#0"/>
    <trip id="90" depart="90.00" from="-192965837" to="-112697458#8"/>
    <trip id="91" depart="91.00" from="-254609234" to="192966157"/>
    <trip id="92" depart="92.00" from="112697458#6" to="-115779423#0"/>
    <trip id="93" depart="93.00" from="-254678149#5" to="112492225#1"/>
    <trip id="94" depart="94.00" from="-331385829#1" to="-193114152#0"/>
    <trip id="95" depart="95.00" from="-254678150#0" to="-193112930#1"/>
    <trip id="96" depart="96.00" from="-254678160" to="-199230922"/>
    <trip id="97" depart="97.00" from="-193229069#2" to="254678148#0"/>
    <trip id="98" depart="98.00" from="112697458#10" to="-254678157#1"/>
    <trip id="99" depart="99.00" from="254678149#5" to="162339443#3"/>
</routes>
